LAMMPS (29 Sep 2021 - Update 2)
# bulk water

units           metal
boundary        p p p
atom_style      charge

newton off
kspace_style pppm 0.000001

neighbor        2.0 bin
neigh_modify    every 10 delay 0 check no

read_data	system.data-bigbox
Reading data file ...
  orthogonal box = (0.0000000 0.0000000 0.0000000) to (25.260000 25.260000 25.260000)
  reading atoms ...
  1584 atoms

dielectric 78.3

velocity        all create 450.0 23456789

pair_style hybrid/overlay nequip  coul/long  10.0   gauss/cut  1.5
pair_coeff  * * coul/long
pair_coeff * *  nequip  licl-deployted.pth  O H Li Cl
pair_coeff * *   gauss/cut 0.0 1.0 1.0 0.1
pair_coeff 1 2  gauss/cut 0.1 1.325 .06 1.5

fix             1 all nvt temp 450.0 450.0 .05
timestep        0.0005
thermo_style    custom step pe ke etotal temp press vol
thermo          100
dump		1 all custom 1 LiClH2O-450K.lammpstrj id element xu yu zu
dump_modify     1 element O H Li Cl

restart 	50000 restartfile1 restartfile2

read_dump LiCl-old-500.lammpstrj  177000  x y z  box no format native
Scanning dump file ...
Reading snapshot from dump file ...
  orthogonal box = (0.0000000 0.0000000 0.0000000) to (25.260000 25.260000 25.260000)
  1584 atoms before read
  1584 atoms in snapshot
  0 atoms purged
  1584 atoms replaced
  0 atoms trimmed
  0 atoms added
  1584 atoms after read
reset_timestep 0

run             430000
PPPM initialization ...
  G vector (1/distance) = 0.22568151
  grid = 9 9 9
  stencil order = 5
  estimated absolute RMS force accuracy = 8.1621662e-06
  estimated relative force accuracy = 5.6683107e-07
  3d grid and FFT values/proc = 2744 729
  update every 10 steps, delay 0 steps, check no
Step PotEng KinEng TotEng Temp Press Volume
0   -254646.91    92.078464   -254554.83          450    6082.5077    16117.588
Averages over the last 2151 of 4301 rows, steps 215000 to 430000:
PotEng KinEng TotEng Temp Press Volume
-254667 85.9261 -254581 419.933 5679.71 16117.6
Loop time of 71975.8 on 1 procs for 430000 steps with 1584 atoms
